Circuit: * C:\Users\henkj\IOT\Fietslamp\02 Electrical\ElectricalSimulation.asc

.OP point found by inspection.

Date: Sat Jun 18 16:34:40 2022
Total elapsed time: 0.210 seconds.

tnom = 27
temp = 27
method = modified trap
totiter = 5737
traniter = 5737
tranpoints = 2140
accept = 1735
rejected = 405
matrix size = 10
fillins = 9
solver = Normal
Matrix Compiler1: 968 bytes object code size  0.3/0.2/[0.1]
Matrix Compiler2: 938 bytes object code size  0.2/0.2/[0.1]


